
---------- Begin Simulation Statistics ----------
final_tick                                10986025000                       # Number of ticks from beginning of simulation (restored from checkpoints and never reset)
host_inst_rate                                 606006                       # Simulator instruction rate (inst/s)
host_mem_usage                                 811076                       # Number of bytes of host memory used
host_op_rate                                  1100703                       # Simulator op (including micro ops) rate (op/s)
host_seconds                                    16.50                       # Real time elapsed on the host
host_tick_rate                              665749571                       # Simulator tick rate (ticks/s)
sim_freq                                 1000000000000                       # Frequency of simulated ticks
sim_insts                                    10000000                       # Number of instructions simulated
sim_ops                                      18163471                       # Number of ops (including micro ops) simulated
sim_seconds                                  0.010986                       # Number of seconds simulated
sim_ticks                                 10986025000                       # Number of ticks simulated
system.clk_domain.clock                          1000                       # Clock period in ticks
system.cpu.Branches                           2086188                       # Number of branches fetched
system.cpu.apic_clk_domain.clock                 8000                       # Clock period in ticks
system.cpu.committedInsts                    10000000                       # Number of instructions committed
system.cpu.committedOps                      18163471                       # Number of ops (including micro ops) committed
system.cpu.dcache.ReadReq_accesses::.cpu.data      2323547                       # number of ReadReq accesses(hits+misses)
system.cpu.dcache.ReadReq_accesses::total      2323547                       # number of ReadReq accesses(hits+misses)
system.cpu.dcache.ReadReq_hits::.cpu.data      1383789                       # number of ReadReq hits
system.cpu.dcache.ReadReq_hits::total         1383789                       # number of ReadReq hits
system.cpu.dcache.ReadReq_miss_rate::.cpu.data     0.404450                       # miss rate for ReadReq accesses
system.cpu.dcache.ReadReq_miss_rate::total     0.404450                       # miss rate for ReadReq accesses
system.cpu.dcache.ReadReq_misses::.cpu.data       939758                       # number of ReadReq misses
system.cpu.dcache.ReadReq_misses::total        939758                       # number of ReadReq misses
system.cpu.dcache.WriteReq_accesses::.cpu.data      1457477                       # number of WriteReq accesses(hits+misses)
system.cpu.dcache.WriteReq_accesses::total      1457477                       # number of WriteReq accesses(hits+misses)
system.cpu.dcache.WriteReq_hits::.cpu.data      1098758                       # number of WriteReq hits
system.cpu.dcache.WriteReq_hits::total        1098758                       # number of WriteReq hits
system.cpu.dcache.WriteReq_miss_rate::.cpu.data     0.246123                       # miss rate for WriteReq accesses
system.cpu.dcache.WriteReq_miss_rate::total     0.246123                       # miss rate for WriteReq accesses
system.cpu.dcache.WriteReq_misses::.cpu.data       358719                       # number of WriteReq misses
system.cpu.dcache.WriteReq_misses::total       358719                       # number of WriteReq misses
system.cpu.dcache.avg_blocked_cycles::no_mshrs          nan                       # average number of cycles each access was blocked
system.cpu.dcache.avg_blocked_cycles::no_targets          nan                       # average number of cycles each access was blocked
system.cpu.dcache.blocked::no_mshrs                 0                       # number of cycles access was blocked
system.cpu.dcache.blocked::no_targets               0                       # number of cycles access was blocked
system.cpu.dcache.blocked_cycles::no_mshrs            0                       # number of cycles access was blocked
system.cpu.dcache.blocked_cycles::no_targets            0                       # number of cycles access was blocked
system.cpu.dcache.demand_accesses::.cpu.data      3781024                       # number of demand (read+write) accesses
system.cpu.dcache.demand_accesses::total      3781024                       # number of demand (read+write) accesses
system.cpu.dcache.demand_hits::.cpu.data      2482547                       # number of demand (read+write) hits
system.cpu.dcache.demand_hits::total          2482547                       # number of demand (read+write) hits
system.cpu.dcache.demand_miss_rate::.cpu.data     0.343419                       # miss rate for demand accesses
system.cpu.dcache.demand_miss_rate::total     0.343419                       # miss rate for demand accesses
system.cpu.dcache.demand_misses::.cpu.data      1298477                       # number of demand (read+write) misses
system.cpu.dcache.demand_misses::total        1298477                       # number of demand (read+write) misses
system.cpu.dcache.overall_accesses::.cpu.data      3781024                       # number of overall (read+write) accesses
system.cpu.dcache.overall_accesses::total      3781024                       # number of overall (read+write) accesses
system.cpu.dcache.overall_hits::.cpu.data      2482547                       # number of overall hits
system.cpu.dcache.overall_hits::total         2482547                       # number of overall hits
system.cpu.dcache.overall_miss_rate::.cpu.data     0.343419                       # miss rate for overall accesses
system.cpu.dcache.overall_miss_rate::total     0.343419                       # miss rate for overall accesses
system.cpu.dcache.overall_misses::.cpu.data      1298477                       # number of overall misses
system.cpu.dcache.overall_misses::total       1298477                       # number of overall misses
system.cpu.dcache.pwrStateResidencyTicks::UNDEFINED  10986025000                       # Cumulative time (in ticks) in various power states
system.cpu.dcache.replacements                1298475                       # number of replacements
system.cpu.dcache.tags.age_task_id_blocks_1024::0            2                       # Occupied blocks per task id
system.cpu.dcache.tags.avg_refs              2.911891                       # Average number of references to valid blocks.
system.cpu.dcache.tags.data_accesses          5079501                       # Number of data accesses
system.cpu.dcache.tags.occ_blocks::.cpu.data     1.999999                       # Average occupied blocks per requestor
system.cpu.dcache.tags.occ_percent::.cpu.data     1.000000                       # Average percentage of cache occupancy
system.cpu.dcache.tags.occ_percent::total     1.000000                       # Average percentage of cache occupancy
system.cpu.dcache.tags.occ_task_id_blocks::1024            2                       # Occupied blocks per task id
system.cpu.dcache.tags.occ_task_id_percent::1024            1                       # Percentage of cache occupancy per task id
system.cpu.dcache.tags.pwrStateResidencyTicks::UNDEFINED  10986025000                       # Cumulative time (in ticks) in various power states
system.cpu.dcache.tags.sampled_refs           1298477                       # Sample count of references to valid blocks.
system.cpu.dcache.tags.tag_accesses           5079501                       # Number of tag accesses
system.cpu.dcache.tags.tagsinuse             1.999999                       # Cycle average of tags in use
system.cpu.dcache.tags.total_refs             3781024                       # Total number of references to valid blocks.
system.cpu.dcache.tags.warmup_cycle              1000                       # Cycle when the warmup percentage was hit.
system.cpu.dcache.writebacks::.writebacks       685683                       # number of writebacks
system.cpu.dcache.writebacks::total            685683                       # number of writebacks
system.cpu.dtb.pwrStateResidencyTicks::UNDEFINED  10986025000                       # Cumulative time (in ticks) in various power states
system.cpu.dtb.rdAccesses                     2323547                       # TLB accesses on read requests
system.cpu.dtb.rdMisses                            30                       # TLB misses on read requests
system.cpu.dtb.walker.pwrStateResidencyTicks::UNDEFINED  10986025000                       # Cumulative time (in ticks) in various power states
system.cpu.dtb.wrAccesses                     1457477                       # TLB accesses on write requests
system.cpu.dtb.wrMisses                           577                       # TLB misses on write requests
system.cpu.dtb_walker_cache.avg_blocked_cycles::no_mshrs          nan                       # average number of cycles each access was blocked
system.cpu.dtb_walker_cache.avg_blocked_cycles::no_targets          nan                       # average number of cycles each access was blocked
system.cpu.dtb_walker_cache.blocked::no_mshrs            0                       # number of cycles access was blocked
system.cpu.dtb_walker_cache.blocked::no_targets            0                       # number of cycles access was blocked
system.cpu.dtb_walker_cache.blocked_cycles::no_mshrs            0                       # number of cycles access was blocked
system.cpu.dtb_walker_cache.blocked_cycles::no_targets            0                       # number of cycles access was blocked
system.cpu.dtb_walker_cache.pwrStateResidencyTicks::UNDEFINED  10986025000                       # Cumulative time (in ticks) in various power states
system.cpu.dtb_walker_cache.replacements            0                       # number of replacements
system.cpu.dtb_walker_cache.tags.avg_refs          nan                       # Average number of references to valid blocks.
system.cpu.dtb_walker_cache.tags.data_accesses            0                       # Number of data accesses
system.cpu.dtb_walker_cache.tags.pwrStateResidencyTicks::UNDEFINED  10986025000                       # Cumulative time (in ticks) in various power states
system.cpu.dtb_walker_cache.tags.sampled_refs            0                       # Sample count of references to valid blocks.
system.cpu.dtb_walker_cache.tags.tag_accesses            0                       # Number of tag accesses
system.cpu.dtb_walker_cache.tags.tagsinuse            0                       # Cycle average of tags in use
system.cpu.dtb_walker_cache.tags.total_refs            0                       # Total number of references to valid blocks.
system.cpu.dtb_walker_cache.tags.warmup_cycle            0                       # Cycle when the warmup percentage was hit.
system.cpu.icache.ReadReq_accesses::.cpu.inst     13808611                       # number of ReadReq accesses(hits+misses)
system.cpu.icache.ReadReq_accesses::total     13808611                       # number of ReadReq accesses(hits+misses)
system.cpu.icache.ReadReq_hits::.cpu.inst     13332440                       # number of ReadReq hits
system.cpu.icache.ReadReq_hits::total        13332440                       # number of ReadReq hits
system.cpu.icache.ReadReq_miss_rate::.cpu.inst     0.034484                       # miss rate for ReadReq accesses
system.cpu.icache.ReadReq_miss_rate::total     0.034484                       # miss rate for ReadReq accesses
system.cpu.icache.ReadReq_misses::.cpu.inst       476171                       # number of ReadReq misses
system.cpu.icache.ReadReq_misses::total        476171                       # number of ReadReq misses
system.cpu.icache.avg_blocked_cycles::no_mshrs          nan                       # average number of cycles each access was blocked
system.cpu.icache.avg_blocked_cycles::no_targets          nan                       # average number of cycles each access was blocked
system.cpu.icache.blocked::no_mshrs                 0                       # number of cycles access was blocked
system.cpu.icache.blocked::no_targets               0                       # number of cycles access was blocked
system.cpu.icache.blocked_cycles::no_mshrs            0                       # number of cycles access was blocked
system.cpu.icache.blocked_cycles::no_targets            0                       # number of cycles access was blocked
system.cpu.icache.demand_accesses::.cpu.inst     13808611                       # number of demand (read+write) accesses
system.cpu.icache.demand_accesses::total     13808611                       # number of demand (read+write) accesses
system.cpu.icache.demand_hits::.cpu.inst     13332440                       # number of demand (read+write) hits
system.cpu.icache.demand_hits::total         13332440                       # number of demand (read+write) hits
system.cpu.icache.demand_miss_rate::.cpu.inst     0.034484                       # miss rate for demand accesses
system.cpu.icache.demand_miss_rate::total     0.034484                       # miss rate for demand accesses
system.cpu.icache.demand_misses::.cpu.inst       476171                       # number of demand (read+write) misses
system.cpu.icache.demand_misses::total         476171                       # number of demand (read+write) misses
system.cpu.icache.overall_accesses::.cpu.inst     13808611                       # number of overall (read+write) accesses
system.cpu.icache.overall_accesses::total     13808611                       # number of overall (read+write) accesses
system.cpu.icache.overall_hits::.cpu.inst     13332440                       # number of overall hits
system.cpu.icache.overall_hits::total        13332440                       # number of overall hits
system.cpu.icache.overall_miss_rate::.cpu.inst     0.034484                       # miss rate for overall accesses
system.cpu.icache.overall_miss_rate::total     0.034484                       # miss rate for overall accesses
system.cpu.icache.overall_misses::.cpu.inst       476171                       # number of overall misses
system.cpu.icache.overall_misses::total        476171                       # number of overall misses
system.cpu.icache.pwrStateResidencyTicks::UNDEFINED  10986025000                       # Cumulative time (in ticks) in various power states
system.cpu.icache.replacements                 476169                       # number of replacements
system.cpu.icache.tags.age_task_id_blocks_1024::0            2                       # Occupied blocks per task id
system.cpu.icache.tags.avg_refs             28.999269                       # Average number of references to valid blocks.
system.cpu.icache.tags.data_accesses         14284782                       # Number of data accesses
system.cpu.icache.tags.occ_blocks::.cpu.inst     1.999998                       # Average occupied blocks per requestor
system.cpu.icache.tags.occ_percent::.cpu.inst     0.999999                       # Average percentage of cache occupancy
system.cpu.icache.tags.occ_percent::total     0.999999                       # Average percentage of cache occupancy
system.cpu.icache.tags.occ_task_id_blocks::1024            2                       # Occupied blocks per task id
system.cpu.icache.tags.occ_task_id_percent::1024            1                       # Percentage of cache occupancy per task id
system.cpu.icache.tags.pwrStateResidencyTicks::UNDEFINED  10986025000                       # Cumulative time (in ticks) in various power states
system.cpu.icache.tags.sampled_refs            476171                       # Sample count of references to valid blocks.
system.cpu.icache.tags.tag_accesses          14284782                       # Number of tag accesses
system.cpu.icache.tags.tagsinuse             1.999998                       # Cycle average of tags in use
system.cpu.icache.tags.total_refs            13808611                       # Total number of references to valid blocks.
system.cpu.icache.tags.warmup_cycle                 0                       # Cycle when the warmup percentage was hit.
system.cpu.icache.writebacks::.writebacks       476169                       # number of writebacks
system.cpu.icache.writebacks::total            476169                       # number of writebacks
system.cpu.idle_fraction                            0                       # Percentage of idle cycles
system.cpu.interrupts.pwrStateResidencyTicks::UNDEFINED  10986025000                       # Cumulative time (in ticks) in various power states
system.cpu.itb.pwrStateResidencyTicks::UNDEFINED  10986025000                       # Cumulative time (in ticks) in various power states
system.cpu.itb.rdAccesses                           0                       # TLB accesses on read requests
system.cpu.itb.rdMisses                             0                       # TLB misses on read requests
system.cpu.itb.walker.pwrStateResidencyTicks::UNDEFINED  10986025000                       # Cumulative time (in ticks) in various power states
system.cpu.itb.wrAccesses                    13808611                       # TLB accesses on write requests
system.cpu.itb.wrMisses                            47                       # TLB misses on write requests
system.cpu.itb_walker_cache.avg_blocked_cycles::no_mshrs          nan                       # average number of cycles each access was blocked
system.cpu.itb_walker_cache.avg_blocked_cycles::no_targets          nan                       # average number of cycles each access was blocked
system.cpu.itb_walker_cache.blocked::no_mshrs            0                       # number of cycles access was blocked
system.cpu.itb_walker_cache.blocked::no_targets            0                       # number of cycles access was blocked
system.cpu.itb_walker_cache.blocked_cycles::no_mshrs            0                       # number of cycles access was blocked
system.cpu.itb_walker_cache.blocked_cycles::no_targets            0                       # number of cycles access was blocked
system.cpu.itb_walker_cache.pwrStateResidencyTicks::UNDEFINED  10986025000                       # Cumulative time (in ticks) in various power states
system.cpu.itb_walker_cache.replacements            0                       # number of replacements
system.cpu.itb_walker_cache.tags.avg_refs          nan                       # Average number of references to valid blocks.
system.cpu.itb_walker_cache.tags.data_accesses            0                       # Number of data accesses
system.cpu.itb_walker_cache.tags.pwrStateResidencyTicks::UNDEFINED  10986025000                       # Cumulative time (in ticks) in various power states
system.cpu.itb_walker_cache.tags.sampled_refs            0                       # Sample count of references to valid blocks.
system.cpu.itb_walker_cache.tags.tag_accesses            0                       # Number of tag accesses
system.cpu.itb_walker_cache.tags.tagsinuse            0                       # Cycle average of tags in use
system.cpu.itb_walker_cache.tags.total_refs            0                       # Total number of references to valid blocks.
system.cpu.itb_walker_cache.tags.warmup_cycle            0                       # Cycle when the warmup percentage was hit.
system.cpu.not_idle_fraction                        1                       # Percentage of non-idle cycles
system.cpu.numCycles                         21972081                       # number of cpu cycles simulated
system.cpu.numWorkItemsCompleted                    0                       # number of work items this cpu completed
system.cpu.numWorkItemsStarted                      0                       # number of work items this cpu started
system.cpu.num_busy_cycles                   21972081                       # Number of busy cycles
system.cpu.num_cc_register_reads             11022432                       # number of times the CC registers were read
system.cpu.num_cc_register_writes             6134141                       # number of times the CC registers were written
system.cpu.num_conditional_control_insts      1671294                       # number of instructions that are conditional controls
system.cpu.num_fp_alu_accesses                 178627                       # Number of float alu accesses
system.cpu.num_fp_insts                        178627                       # number of float instructions
system.cpu.num_fp_register_reads               272935                       # number of times the floating registers were read
system.cpu.num_fp_register_writes              153721                       # number of times the floating registers were written
system.cpu.num_func_calls                      197225                       # number of times a function call or return occured
system.cpu.num_idle_cycles                          0                       # Number of idle cycles
system.cpu.num_int_alu_accesses              17968396                       # Number of integer alu accesses
system.cpu.num_int_insts                     17968396                       # number of integer instructions
system.cpu.num_int_register_reads            35557557                       # number of times the integer registers were read
system.cpu.num_int_register_writes           14438226                       # number of times the integer registers were written
system.cpu.num_load_insts                     2323470                       # Number of load instructions
system.cpu.num_mem_refs                       3780947                       # number of memory refs
system.cpu.num_store_insts                    1457477                       # Number of store instructions
system.cpu.num_vec_alu_accesses                     0                       # Number of vector alu accesses
system.cpu.num_vec_insts                            0                       # number of vector instructions
system.cpu.num_vec_register_reads                   0                       # number of times the vector registers were read
system.cpu.num_vec_register_writes                  0                       # number of times the vector registers were written
system.cpu.op_class::No_OpClass                 54419      0.30%      0.30% # Class of executed instruction
system.cpu.op_class::IntAlu                  14147827     77.89%     78.19% # Class of executed instruction
system.cpu.op_class::IntMult                    38112      0.21%     78.40% # Class of executed instruction
system.cpu.op_class::IntDiv                        28      0.00%     78.40% # Class of executed instruction
system.cpu.op_class::FloatAdd                   11589      0.06%     78.47% # Class of executed instruction
system.cpu.op_class::FloatCmp                       0      0.00%     78.47% # Class of executed instruction
system.cpu.op_class::FloatCvt                       0      0.00%     78.47% # Class of executed instruction
system.cpu.op_class::FloatMult                      0      0.00%     78.47% # Class of executed instruction
system.cpu.op_class::FloatMultAcc                   0      0.00%     78.47% # Class of executed instruction
system.cpu.op_class::FloatDiv                       0      0.00%     78.47% # Class of executed instruction
system.cpu.op_class::FloatMisc                      0      0.00%     78.47% # Class of executed instruction
system.cpu.op_class::FloatSqrt                      0      0.00%     78.47% # Class of executed instruction
system.cpu.op_class::SimdAdd                        0      0.00%     78.47% # Class of executed instruction
system.cpu.op_class::SimdAddAcc                     0      0.00%     78.47% # Class of executed instruction
system.cpu.op_class::SimdAlu                       98      0.00%     78.47% # Class of executed instruction
system.cpu.op_class::SimdCmp                        0      0.00%     78.47% # Class of executed instruction
system.cpu.op_class::SimdCvt                    24662      0.14%     78.60% # Class of executed instruction
system.cpu.op_class::SimdMisc                  105789      0.58%     79.18% # Class of executed instruction
system.cpu.op_class::SimdMult                       0      0.00%     79.18% # Class of executed instruction
system.cpu.op_class::SimdMultAcc                    0      0.00%     79.18% # Class of executed instruction
system.cpu.op_class::SimdShift                      0      0.00%     79.18% # Class of executed instruction
system.cpu.op_class::SimdShiftAcc                   0      0.00%     79.18% # Class of executed instruction
system.cpu.op_class::SimdDiv                        0      0.00%     79.18% # Class of executed instruction
system.cpu.op_class::SimdSqrt                       0      0.00%     79.18% # Class of executed instruction
system.cpu.op_class::SimdFloatAdd                   0      0.00%     79.18% # Class of executed instruction
system.cpu.op_class::SimdFloatAlu                   0      0.00%     79.18% # Class of executed instruction
system.cpu.op_class::SimdFloatCmp                   0      0.00%     79.18% # Class of executed instruction
system.cpu.op_class::SimdFloatCvt                   0      0.00%     79.18% # Class of executed instruction
system.cpu.op_class::SimdFloatDiv                   0      0.00%     79.18% # Class of executed instruction
system.cpu.op_class::SimdFloatMisc                  0      0.00%     79.18% # Class of executed instruction
system.cpu.op_class::SimdFloatMult                  0      0.00%     79.18% # Class of executed instruction
system.cpu.op_class::SimdFloatMultAcc               0      0.00%     79.18% # Class of executed instruction
system.cpu.op_class::SimdFloatSqrt                  0      0.00%     79.18% # Class of executed instruction
system.cpu.op_class::SimdReduceAdd                  0      0.00%     79.18% # Class of executed instruction
system.cpu.op_class::SimdReduceAlu                  0      0.00%     79.18% # Class of executed instruction
system.cpu.op_class::SimdReduceCmp                  0      0.00%     79.18% # Class of executed instruction
system.cpu.op_class::SimdFloatReduceAdd             0      0.00%     79.18% # Class of executed instruction
system.cpu.op_class::SimdFloatReduceCmp             0      0.00%     79.18% # Class of executed instruction
system.cpu.op_class::SimdAes                        0      0.00%     79.18% # Class of executed instruction
system.cpu.op_class::SimdAesMix                     0      0.00%     79.18% # Class of executed instruction
system.cpu.op_class::SimdSha1Hash                   0      0.00%     79.18% # Class of executed instruction
system.cpu.op_class::SimdSha1Hash2                  0      0.00%     79.18% # Class of executed instruction
system.cpu.op_class::SimdSha256Hash                 0      0.00%     79.18% # Class of executed instruction
system.cpu.op_class::SimdSha256Hash2                0      0.00%     79.18% # Class of executed instruction
system.cpu.op_class::SimdShaSigma2                  0      0.00%     79.18% # Class of executed instruction
system.cpu.op_class::SimdShaSigma3                  0      0.00%     79.18% # Class of executed instruction
system.cpu.op_class::SimdPredAlu                    0      0.00%     79.18% # Class of executed instruction
system.cpu.op_class::MemRead                  2298816     12.66%     91.84% # Class of executed instruction
system.cpu.op_class::MemWrite                 1457237      8.02%     99.86% # Class of executed instruction
system.cpu.op_class::FloatMemRead               24654      0.14%    100.00% # Class of executed instruction
system.cpu.op_class::FloatMemWrite                240      0.00%    100.00% # Class of executed instruction
system.cpu.op_class::IprAccess                      0      0.00%    100.00% # Class of executed instruction
system.cpu.op_class::InstPrefetch                   0      0.00%    100.00% # Class of executed instruction
system.cpu.op_class::total                   18163471                       # Class of executed instruction
system.cpu.pwrStateResidencyTicks::ON     10986025000                       # Cumulative time (in ticks) in various power states
system.cpu.workload.numSyscalls                    29                       # Number of system calls
system.cpu_clk_domain.clock                       500                       # Clock period in ticks
system.cpu_voltage_domain.voltage                   1                       # Voltage in Volts
system.l2.ReadCleanReq_accesses::.cpu.inst       476171                       # number of ReadCleanReq accesses(hits+misses)
system.l2.ReadCleanReq_accesses::total         476171                       # number of ReadCleanReq accesses(hits+misses)
system.l2.ReadCleanReq_hits::.cpu.inst          96372                       # number of ReadCleanReq hits
system.l2.ReadCleanReq_hits::total              96372                       # number of ReadCleanReq hits
system.l2.ReadCleanReq_miss_rate::.cpu.inst     0.797611                       # miss rate for ReadCleanReq accesses
system.l2.ReadCleanReq_miss_rate::total      0.797611                       # miss rate for ReadCleanReq accesses
system.l2.ReadCleanReq_misses::.cpu.inst       379799                       # number of ReadCleanReq misses
system.l2.ReadCleanReq_misses::total           379799                       # number of ReadCleanReq misses
system.l2.ReadExReq_accesses::.cpu.data        358719                       # number of ReadExReq accesses(hits+misses)
system.l2.ReadExReq_accesses::total            358719                       # number of ReadExReq accesses(hits+misses)
system.l2.ReadExReq_hits::.cpu.data            139555                       # number of ReadExReq hits
system.l2.ReadExReq_hits::total                139555                       # number of ReadExReq hits
system.l2.ReadExReq_miss_rate::.cpu.data     0.610963                       # miss rate for ReadExReq accesses
system.l2.ReadExReq_miss_rate::total         0.610963                       # miss rate for ReadExReq accesses
system.l2.ReadExReq_misses::.cpu.data          219164                       # number of ReadExReq misses
system.l2.ReadExReq_misses::total              219164                       # number of ReadExReq misses
system.l2.ReadSharedReq_accesses::.cpu.data       939758                       # number of ReadSharedReq accesses(hits+misses)
system.l2.ReadSharedReq_accesses::total        939758                       # number of ReadSharedReq accesses(hits+misses)
system.l2.ReadSharedReq_hits::.cpu.data        154073                       # number of ReadSharedReq hits
system.l2.ReadSharedReq_hits::total            154073                       # number of ReadSharedReq hits
system.l2.ReadSharedReq_miss_rate::.cpu.data     0.836050                       # miss rate for ReadSharedReq accesses
system.l2.ReadSharedReq_miss_rate::total     0.836050                       # miss rate for ReadSharedReq accesses
system.l2.ReadSharedReq_misses::.cpu.data       785685                       # number of ReadSharedReq misses
system.l2.ReadSharedReq_misses::total          785685                       # number of ReadSharedReq misses
system.l2.WritebackClean_accesses::.writebacks       476169                       # number of WritebackClean accesses(hits+misses)
system.l2.WritebackClean_accesses::total       476169                       # number of WritebackClean accesses(hits+misses)
system.l2.WritebackClean_hits::.writebacks       476169                       # number of WritebackClean hits
system.l2.WritebackClean_hits::total           476169                       # number of WritebackClean hits
system.l2.WritebackDirty_accesses::.writebacks       685683                       # number of WritebackDirty accesses(hits+misses)
system.l2.WritebackDirty_accesses::total       685683                       # number of WritebackDirty accesses(hits+misses)
system.l2.WritebackDirty_hits::.writebacks       685683                       # number of WritebackDirty hits
system.l2.WritebackDirty_hits::total           685683                       # number of WritebackDirty hits
system.l2.avg_blocked_cycles::no_mshrs            nan                       # average number of cycles each access was blocked
system.l2.avg_blocked_cycles::no_targets          nan                       # average number of cycles each access was blocked
system.l2.blocked::no_mshrs                         0                       # number of cycles access was blocked
system.l2.blocked::no_targets                       0                       # number of cycles access was blocked
system.l2.blocked_cycles::no_mshrs                  0                       # number of cycles access was blocked
system.l2.blocked_cycles::no_targets                0                       # number of cycles access was blocked
system.l2.demand_accesses::.cpu.inst           476171                       # number of demand (read+write) accesses
system.l2.demand_accesses::.cpu.data          1298477                       # number of demand (read+write) accesses
system.l2.demand_accesses::total              1774648                       # number of demand (read+write) accesses
system.l2.demand_hits::.cpu.inst                96372                       # number of demand (read+write) hits
system.l2.demand_hits::.cpu.data               293628                       # number of demand (read+write) hits
system.l2.demand_hits::total                   390000                       # number of demand (read+write) hits
system.l2.demand_miss_rate::.cpu.inst        0.797611                       # miss rate for demand accesses
system.l2.demand_miss_rate::.cpu.data        0.773867                       # miss rate for demand accesses
system.l2.demand_miss_rate::total            0.780238                       # miss rate for demand accesses
system.l2.demand_misses::.cpu.inst             379799                       # number of demand (read+write) misses
system.l2.demand_misses::.cpu.data            1004849                       # number of demand (read+write) misses
system.l2.demand_misses::total                1384648                       # number of demand (read+write) misses
system.l2.overall_accesses::.cpu.inst          476171                       # number of overall (read+write) accesses
system.l2.overall_accesses::.cpu.data         1298477                       # number of overall (read+write) accesses
system.l2.overall_accesses::total             1774648                       # number of overall (read+write) accesses
system.l2.overall_hits::.cpu.inst               96372                       # number of overall hits
system.l2.overall_hits::.cpu.data              293628                       # number of overall hits
system.l2.overall_hits::total                  390000                       # number of overall hits
system.l2.overall_miss_rate::.cpu.inst       0.797611                       # miss rate for overall accesses
system.l2.overall_miss_rate::.cpu.data       0.773867                       # miss rate for overall accesses
system.l2.overall_miss_rate::total           0.780238                       # miss rate for overall accesses
system.l2.overall_misses::.cpu.inst            379799                       # number of overall misses
system.l2.overall_misses::.cpu.data           1004849                       # number of overall misses
system.l2.overall_misses::total               1384648                       # number of overall misses
system.l2.pwrStateResidencyTicks::UNDEFINED  10986025000                       # Cumulative time (in ticks) in various power states
system.l2.replacements                        2546498                       # number of replacements
system.l2.tags.age_task_id_blocks_1024::0            2                       # Occupied blocks per task id
system.l2.tags.avg_refs                      1.153151                       # Average number of references to valid blocks.
system.l2.tags.data_accesses                  6095792                       # Number of data accesses
system.l2.tags.occ_blocks::.writebacks       1.619355                       # Average occupied blocks per requestor
system.l2.tags.occ_blocks::.cpu.inst         0.000001                       # Average occupied blocks per requestor
system.l2.tags.occ_blocks::.cpu.data         0.380643                       # Average occupied blocks per requestor
system.l2.tags.occ_percent::.writebacks      0.809678                       # Average percentage of cache occupancy
system.l2.tags.occ_percent::.cpu.inst        0.000000                       # Average percentage of cache occupancy
system.l2.tags.occ_percent::.cpu.data        0.190322                       # Average percentage of cache occupancy
system.l2.tags.occ_percent::total            1.000000                       # Average percentage of cache occupancy
system.l2.tags.occ_task_id_blocks::1024             2                       # Occupied blocks per task id
system.l2.tags.occ_task_id_percent::1024            1                       # Percentage of cache occupancy per task id
system.l2.tags.pwrStateResidencyTicks::UNDEFINED  10986025000                       # Cumulative time (in ticks) in various power states
system.l2.tags.sampled_refs                   2546500                       # Sample count of references to valid blocks.
system.l2.tags.tag_accesses                   6095792                       # Number of tag accesses
system.l2.tags.tagsinuse                     2.000000                       # Cycle average of tags in use
system.l2.tags.total_refs                     2936500                       # Total number of references to valid blocks.
system.l2.tags.warmup_cycle                         0                       # Cycle when the warmup percentage was hit.
system.l2.writebacks::.writebacks              392055                       # number of writebacks
system.l2.writebacks::total                    392055                       # number of writebacks
system.mem_ctrls.avgBusLat                        nan                       # Average bus latency per DRAM burst
system.mem_ctrls.avgGap                           nan                       # Average gap between requests
system.mem_ctrls.avgMemAccLat                     nan                       # Average memory access latency per DRAM burst
system.mem_ctrls.avgQLat                          nan                       # Average queueing delay per DRAM burst
system.mem_ctrls.avgRdBW                         0.00                       # Average DRAM read bandwidth in MiByte/s
system.mem_ctrls.avgRdBWSys                      0.00                       # Average system read bandwidth in MiByte/s
system.mem_ctrls.avgRdQLen                       0.00                       # Average read queue length when enqueuing
system.mem_ctrls.avgWrBW                         0.00                       # Average achieved write bandwidth in MiByte/s
system.mem_ctrls.avgWrBWSys                      0.00                       # Average system write bandwidth in MiByte/s
system.mem_ctrls.avgWrQLen                       0.00                       # Average write queue length when enqueuing
system.mem_ctrls.busUtil                         0.00                       # Data bus utilization in percentage
system.mem_ctrls.busUtilRead                     0.00                       # Data bus utilization in percentage for reads
system.mem_ctrls.busUtilWrite                    0.00                       # Data bus utilization in percentage for writes
system.mem_ctrls.bw_inst_read::.cpu.inst  17700404650                       # Instruction read bandwidth from this memory (bytes/s)
system.mem_ctrls.bw_inst_read::total      17700404650                       # Instruction read bandwidth from this memory (bytes/s)
system.mem_ctrls.bw_read::.cpu.inst       17700404650                       # Total read bandwidth from this memory (bytes/s)
system.mem_ctrls.bw_read::.cpu.data       46830649666                       # Total read bandwidth from this memory (bytes/s)
system.mem_ctrls.bw_read::total           64531054317                       # Total read bandwidth from this memory (bytes/s)
system.mem_ctrls.bw_total::.writebacks    18271591408                       # Total bandwidth to/from this memory (bytes/s)
system.mem_ctrls.bw_total::.cpu.inst      17700404650                       # Total bandwidth to/from this memory (bytes/s)
system.mem_ctrls.bw_total::.cpu.data      46830649666                       # Total bandwidth to/from this memory (bytes/s)
system.mem_ctrls.bw_total::total          82802645725                       # Total bandwidth to/from this memory (bytes/s)
system.mem_ctrls.bw_write::.writebacks    18271591408                       # Write bandwidth from this memory (bytes/s)
system.mem_ctrls.bw_write::total          18271591408                       # Write bandwidth from this memory (bytes/s)
system.mem_ctrls.bytesReadDRAM                      0                       # Total number of bytes read from DRAM
system.mem_ctrls.bytesReadSys                       0                       # Total read bytes from the system interface side
system.mem_ctrls.bytesReadWrQ                       0                       # Total number of bytes read from write queue
system.mem_ctrls.bytesWritten                       0                       # Total number of bytes written to DRAM
system.mem_ctrls.bytesWrittenSys                    0                       # Total written bytes from the system interface side
system.mem_ctrls.bytes_inst_read::.cpu.inst    194457088                       # Number of instructions bytes read from this memory
system.mem_ctrls.bytes_inst_read::total     194457088                       # Number of instructions bytes read from this memory
system.mem_ctrls.bytes_read::.cpu.inst      194457088                       # Number of bytes read from this memory
system.mem_ctrls.bytes_read::.cpu.data      514482688                       # Number of bytes read from this memory
system.mem_ctrls.bytes_read::total          708939776                       # Number of bytes read from this memory
system.mem_ctrls.bytes_written::.writebacks    200732160                       # Number of bytes written to this memory
system.mem_ctrls.bytes_written::total       200732160                       # Number of bytes written to this memory
system.mem_ctrls.mergedWrBursts                     0                       # Number of DRAM write bursts merged with an existing one
system.mem_ctrls.neitherReadNorWriteReqs            0                       # Number of requests that are neither read nor write
system.mem_ctrls.numRdRetry                         0                       # Number of times read queue was full causing retry
system.mem_ctrls.numReadWriteTurnArounds            0                       # Number of turnarounds from READ to WRITE
system.mem_ctrls.numStayReadState                   0                       # Number of times bus staying in READ state
system.mem_ctrls.numStayWriteState                  0                       # Number of times bus staying in WRITE state
system.mem_ctrls.numWrRetry                         0                       # Number of times write queue was full causing retry
system.mem_ctrls.numWriteReadTurnArounds            0                       # Number of turnarounds from WRITE to READ
system.mem_ctrls.num_reads::.cpu.inst          379799                       # Number of read requests responded to by this memory
system.mem_ctrls.num_reads::.cpu.data         1004849                       # Number of read requests responded to by this memory
system.mem_ctrls.num_reads::total             1384648                       # Number of read requests responded to by this memory
system.mem_ctrls.num_writes::.writebacks       392055                       # Number of write requests responded to by this memory
system.mem_ctrls.num_writes::total             392055                       # Number of write requests responded to by this memory
system.mem_ctrls.pageHitRate                      nan                       # Row buffer hit rate, read and write combined
system.mem_ctrls.peakBW                      12800.00                       # Theoretical peak bandwidth in MiByte/s
system.mem_ctrls.perBankRdBursts::0                 0                       # Per bank write bursts
system.mem_ctrls.perBankRdBursts::1                 0                       # Per bank write bursts
system.mem_ctrls.perBankRdBursts::2                 0                       # Per bank write bursts
system.mem_ctrls.perBankRdBursts::3                 0                       # Per bank write bursts
system.mem_ctrls.perBankRdBursts::4                 0                       # Per bank write bursts
system.mem_ctrls.perBankRdBursts::5                 0                       # Per bank write bursts
system.mem_ctrls.perBankRdBursts::6                 0                       # Per bank write bursts
system.mem_ctrls.perBankRdBursts::7                 0                       # Per bank write bursts
system.mem_ctrls.perBankRdBursts::8                 0                       # Per bank write bursts
system.mem_ctrls.perBankRdBursts::9                 0                       # Per bank write bursts
system.mem_ctrls.perBankRdBursts::10                0                       # Per bank write bursts
system.mem_ctrls.perBankRdBursts::11                0                       # Per bank write bursts
system.mem_ctrls.perBankRdBursts::12                0                       # Per bank write bursts
system.mem_ctrls.perBankRdBursts::13                0                       # Per bank write bursts
system.mem_ctrls.perBankRdBursts::14                0                       # Per bank write bursts
system.mem_ctrls.perBankRdBursts::15                0                       # Per bank write bursts
system.mem_ctrls.perBankWrBursts::0                 0                       # Per bank write bursts
system.mem_ctrls.perBankWrBursts::1                 0                       # Per bank write bursts
system.mem_ctrls.perBankWrBursts::2                 0                       # Per bank write bursts
system.mem_ctrls.perBankWrBursts::3                 0                       # Per bank write bursts
system.mem_ctrls.perBankWrBursts::4                 0                       # Per bank write bursts
system.mem_ctrls.perBankWrBursts::5                 0                       # Per bank write bursts
system.mem_ctrls.perBankWrBursts::6                 0                       # Per bank write bursts
system.mem_ctrls.perBankWrBursts::7                 0                       # Per bank write bursts
system.mem_ctrls.perBankWrBursts::8                 0                       # Per bank write bursts
system.mem_ctrls.perBankWrBursts::9                 0                       # Per bank write bursts
system.mem_ctrls.perBankWrBursts::10                0                       # Per bank write bursts
system.mem_ctrls.perBankWrBursts::11                0                       # Per bank write bursts
system.mem_ctrls.perBankWrBursts::12                0                       # Per bank write bursts
system.mem_ctrls.perBankWrBursts::13                0                       # Per bank write bursts
system.mem_ctrls.perBankWrBursts::14                0                       # Per bank write bursts
system.mem_ctrls.perBankWrBursts::15                0                       # Per bank write bursts
system.mem_ctrls.priorityMaxLatency      0.000000000000                       # per QoS priority maximum request to response latency (s)
system.mem_ctrls.priorityMinLatency      0.000000000000                       # per QoS priority minimum request to response latency (s)
system.mem_ctrls.pwrStateResidencyTicks::UNDEFINED  10986025000                       # Cumulative time (in ticks) in various power states
system.mem_ctrls.rdQLenPdf::0                       0                       # What read queue length does an incoming req see
system.mem_ctrls.rdQLenPdf::1                       0                       # What read queue length does an incoming req see
system.mem_ctrls.rdQLenPdf::2                       0                       # What read queue length does an incoming req see
system.mem_ctrls.rdQLenPdf::3                       0                       # What read queue length does an incoming req see
system.mem_ctrls.rdQLenPdf::4                       0                       # What read queue length does an incoming req see
system.mem_ctrls.rdQLenPdf::5                       0                       # What read queue length does an incoming req see
system.mem_ctrls.rdQLenPdf::6                       0                       # What read queue length does an incoming req see
system.mem_ctrls.rdQLenPdf::7                       0                       # What read queue length does an incoming req see
system.mem_ctrls.rdQLenPdf::8                       0                       # What read queue length does an incoming req see
system.mem_ctrls.rdQLenPdf::9                       0                       # What read queue length does an incoming req see
system.mem_ctrls.rdQLenPdf::10                      0                       # What read queue length does an incoming req see
system.mem_ctrls.rdQLenPdf::11                      0                       # What read queue length does an incoming req see
system.mem_ctrls.rdQLenPdf::12                      0                       # What read queue length does an incoming req see
system.mem_ctrls.rdQLenPdf::13                      0                       # What read queue length does an incoming req see
system.mem_ctrls.rdQLenPdf::14                      0                       # What read queue length does an incoming req see
system.mem_ctrls.rdQLenPdf::15                      0                       # What read queue length does an incoming req see
system.mem_ctrls.rdQLenPdf::16                      0                       # What read queue length does an incoming req see
system.mem_ctrls.rdQLenPdf::17                      0                       # What read queue length does an incoming req see
system.mem_ctrls.rdQLenPdf::18                      0                       # What read queue length does an incoming req see
system.mem_ctrls.rdQLenPdf::19                      0                       # What read queue length does an incoming req see
system.mem_ctrls.rdQLenPdf::20                      0                       # What read queue length does an incoming req see
system.mem_ctrls.rdQLenPdf::21                      0                       # What read queue length does an incoming req see
system.mem_ctrls.rdQLenPdf::22                      0                       # What read queue length does an incoming req see
system.mem_ctrls.rdQLenPdf::23                      0                       # What read queue length does an incoming req see
system.mem_ctrls.rdQLenPdf::24                      0                       # What read queue length does an incoming req see
system.mem_ctrls.rdQLenPdf::25                      0                       # What read queue length does an incoming req see
system.mem_ctrls.rdQLenPdf::26                      0                       # What read queue length does an incoming req see
system.mem_ctrls.rdQLenPdf::27                      0                       # What read queue length does an incoming req see
system.mem_ctrls.rdQLenPdf::28                      0                       # What read queue length does an incoming req see
system.mem_ctrls.rdQLenPdf::29                      0                       # What read queue length does an incoming req see
system.mem_ctrls.rdQLenPdf::30                      0                       # What read queue length does an incoming req see
system.mem_ctrls.rdQLenPdf::31                      0                       # What read queue length does an incoming req see
system.mem_ctrls.readBursts                         0                       # Number of DRAM read bursts, including those serviced by the write queue
system.mem_ctrls.readPktSize::0                     0                       # Read request sizes (log2)
system.mem_ctrls.readPktSize::1                     0                       # Read request sizes (log2)
system.mem_ctrls.readPktSize::2                     0                       # Read request sizes (log2)
system.mem_ctrls.readPktSize::3                     0                       # Read request sizes (log2)
system.mem_ctrls.readPktSize::4                     0                       # Read request sizes (log2)
system.mem_ctrls.readPktSize::5                     0                       # Read request sizes (log2)
system.mem_ctrls.readPktSize::6                     0                       # Read request sizes (log2)
system.mem_ctrls.readReqs                           0                       # Number of read requests accepted
system.mem_ctrls.readRowHitRate                   nan                       # Row buffer hit rate for reads
system.mem_ctrls.readRowHits                        0                       # Number of row buffer hits during reads
system.mem_ctrls.servicedByWrQ                      0                       # Number of DRAM read bursts serviced by the write queue
system.mem_ctrls.totBusLat                          0                       # Total ticks spent in databus transfers
system.mem_ctrls.totGap                             0                       # Total gap between requests
system.mem_ctrls.totMemAccLat                       0                       # Total ticks spent from burst creation until serviced by the DRAM
system.mem_ctrls.totQLat                            0                       # Total ticks spent queuing
system.mem_ctrls.wrQLenPdf::0                       0                       # What write queue length does an incoming req see
system.mem_ctrls.wrQLenPdf::1                       0                       # What write queue length does an incoming req see
system.mem_ctrls.wrQLenPdf::2                       0                       # What write queue length does an incoming req see
system.mem_ctrls.wrQLenPdf::3                       0                       # What write queue length does an incoming req see
system.mem_ctrls.wrQLenPdf::4                       0                       # What write queue length does an incoming req see
system.mem_ctrls.wrQLenPdf::5                       0                       # What write queue length does an incoming req see
system.mem_ctrls.wrQLenPdf::6                       0                       # What write queue length does an incoming req see
system.mem_ctrls.wrQLenPdf::7                       0                       # What write queue length does an incoming req see
system.mem_ctrls.wrQLenPdf::8                       0                       # What write queue length does an incoming req see
system.mem_ctrls.wrQLenPdf::9                       0                       # What write queue length does an incoming req see
system.mem_ctrls.wrQLenPdf::10                      0                       # What write queue length does an incoming req see
system.mem_ctrls.wrQLenPdf::11                      0                       # What write queue length does an incoming req see
system.mem_ctrls.wrQLenPdf::12                      0                       # What write queue length does an incoming req see
system.mem_ctrls.wrQLenPdf::13                      0                       # What write queue length does an incoming req see
system.mem_ctrls.wrQLenPdf::14                      0                       # What write queue length does an incoming req see
system.mem_ctrls.wrQLenPdf::15                      0                       # What write queue length does an incoming req see
system.mem_ctrls.wrQLenPdf::16                      0                       # What write queue length does an incoming req see
system.mem_ctrls.wrQLenPdf::17                      0                       # What write queue length does an incoming req see
system.mem_ctrls.wrQLenPdf::18                      0                       # What write queue length does an incoming req see
system.mem_ctrls.wrQLenPdf::19                      0                       # What write queue length does an incoming req see
system.mem_ctrls.wrQLenPdf::20                      0                       # What write queue length does an incoming req see
system.mem_ctrls.wrQLenPdf::21                      0                       # What write queue length does an incoming req see
system.mem_ctrls.wrQLenPdf::22                      0                       # What write queue length does an incoming req see
system.mem_ctrls.wrQLenPdf::23                      0                       # What write queue length does an incoming req see
system.mem_ctrls.wrQLenPdf::24                      0                       # What write queue length does an incoming req see
system.mem_ctrls.wrQLenPdf::25                      0                       # What write queue length does an incoming req see
system.mem_ctrls.wrQLenPdf::26                      0                       # What write queue length does an incoming req see
system.mem_ctrls.wrQLenPdf::27                      0                       # What write queue length does an incoming req see
system.mem_ctrls.wrQLenPdf::28                      0                       # What write queue length does an incoming req see
system.mem_ctrls.wrQLenPdf::29                      0                       # What write queue length does an incoming req see
system.mem_ctrls.wrQLenPdf::30                      0                       # What write queue length does an incoming req see
system.mem_ctrls.wrQLenPdf::31                      0                       # What write queue length does an incoming req see
system.mem_ctrls.wrQLenPdf::32                      0                       # What write queue length does an incoming req see
system.mem_ctrls.wrQLenPdf::33                      0                       # What write queue length does an incoming req see
system.mem_ctrls.wrQLenPdf::34                      0                       # What write queue length does an incoming req see
system.mem_ctrls.wrQLenPdf::35                      0                       # What write queue length does an incoming req see
system.mem_ctrls.wrQLenPdf::36                      0                       # What write queue length does an incoming req see
system.mem_ctrls.wrQLenPdf::37                      0                       # What write queue length does an incoming req see
system.mem_ctrls.wrQLenPdf::38                      0                       # What write queue length does an incoming req see
system.mem_ctrls.wrQLenPdf::39                      0                       # What write queue length does an incoming req see
system.mem_ctrls.wrQLenPdf::40                      0                       # What write queue length does an incoming req see
system.mem_ctrls.wrQLenPdf::41                      0                       # What write queue length does an incoming req see
system.mem_ctrls.wrQLenPdf::42                      0                       # What write queue length does an incoming req see
system.mem_ctrls.wrQLenPdf::43                      0                       # What write queue length does an incoming req see
system.mem_ctrls.wrQLenPdf::44                      0                       # What write queue length does an incoming req see
system.mem_ctrls.wrQLenPdf::45                      0                       # What write queue length does an incoming req see
system.mem_ctrls.wrQLenPdf::46                      0                       # What write queue length does an incoming req see
system.mem_ctrls.wrQLenPdf::47                      0                       # What write queue length does an incoming req see
system.mem_ctrls.wrQLenPdf::48                      0                       # What write queue length does an incoming req see
system.mem_ctrls.wrQLenPdf::49                      0                       # What write queue length does an incoming req see
system.mem_ctrls.wrQLenPdf::50                      0                       # What write queue length does an incoming req see
system.mem_ctrls.wrQLenPdf::51                      0                       # What write queue length does an incoming req see
system.mem_ctrls.wrQLenPdf::52                      0                       # What write queue length does an incoming req see
system.mem_ctrls.wrQLenPdf::53                      0                       # What write queue length does an incoming req see
system.mem_ctrls.wrQLenPdf::54                      0                       # What write queue length does an incoming req see
system.mem_ctrls.wrQLenPdf::55                      0                       # What write queue length does an incoming req see
system.mem_ctrls.wrQLenPdf::56                      0                       # What write queue length does an incoming req see
system.mem_ctrls.wrQLenPdf::57                      0                       # What write queue length does an incoming req see
system.mem_ctrls.wrQLenPdf::58                      0                       # What write queue length does an incoming req see
system.mem_ctrls.wrQLenPdf::59                      0                       # What write queue length does an incoming req see
system.mem_ctrls.wrQLenPdf::60                      0                       # What write queue length does an incoming req see
system.mem_ctrls.wrQLenPdf::61                      0                       # What write queue length does an incoming req see
system.mem_ctrls.wrQLenPdf::62                      0                       # What write queue length does an incoming req see
system.mem_ctrls.wrQLenPdf::63                      0                       # What write queue length does an incoming req see
system.mem_ctrls.writeBursts                        0                       # Number of DRAM write bursts, including those merged in the write queue
system.mem_ctrls.writePktSize::0                    0                       # Write request sizes (log2)
system.mem_ctrls.writePktSize::1                    0                       # Write request sizes (log2)
system.mem_ctrls.writePktSize::2                    0                       # Write request sizes (log2)
system.mem_ctrls.writePktSize::3                    0                       # Write request sizes (log2)
system.mem_ctrls.writePktSize::4                    0                       # Write request sizes (log2)
system.mem_ctrls.writePktSize::5                    0                       # Write request sizes (log2)
system.mem_ctrls.writePktSize::6                    0                       # Write request sizes (log2)
system.mem_ctrls.writeReqs                          0                       # Number of write requests accepted
system.mem_ctrls.writeRowHitRate                  nan                       # Row buffer hit rate for writes
system.mem_ctrls.writeRowHits                       0                       # Number of row buffer hits during writes
system.mem_ctrls_0.actBackEnergy                    0                       # Energy for active background per rank (pJ)
system.mem_ctrls_0.actEnergy                        0                       # Energy for activate commands per rank (pJ)
system.mem_ctrls_0.actPowerDownEnergy               0                       # Energy for active power-down per rank (pJ)
system.mem_ctrls_0.averagePower                   384                       # Core power per rank (mW)
system.mem_ctrls_0.memoryStateTime::IDLE  10986025000                       # Time in different power states
system.mem_ctrls_0.memoryStateTime::REF             0                       # Time in different power states
system.mem_ctrls_0.memoryStateTime::SREF            0                       # Time in different power states
system.mem_ctrls_0.memoryStateTime::PRE_PDN            0                       # Time in different power states
system.mem_ctrls_0.memoryStateTime::ACT             0                       # Time in different power states
system.mem_ctrls_0.memoryStateTime::ACT_PDN            0                       # Time in different power states
system.mem_ctrls_0.preBackEnergy           4218633600                       # Energy for precharge background per rank (pJ)
system.mem_ctrls_0.preEnergy                        0                       # Energy for precharge commands per rank (pJ)
system.mem_ctrls_0.prePowerDownEnergy               0                       # Energy for precharge power-down per rank (pJ)
system.mem_ctrls_0.readEnergy                       0                       # Energy for read commands per rank (pJ)
system.mem_ctrls_0.refreshEnergy                    0                       # Energy for refresh commands per rank (pJ)
system.mem_ctrls_0.selfRefreshEnergy                0                       # Energy for self refresh per rank (pJ)
system.mem_ctrls_0.totalEnergy             4218633600                       # Total energy per rank (pJ)
system.mem_ctrls_0.totalIdleTime                    0                       # Total Idle time Per DRAM Rank
system.mem_ctrls_0.writeEnergy                      0                       # Energy for write commands per rank (pJ)
system.mem_ctrls_1.actBackEnergy                    0                       # Energy for active background per rank (pJ)
system.mem_ctrls_1.actEnergy                        0                       # Energy for activate commands per rank (pJ)
system.mem_ctrls_1.actPowerDownEnergy               0                       # Energy for active power-down per rank (pJ)
system.mem_ctrls_1.averagePower                   384                       # Core power per rank (mW)
system.mem_ctrls_1.memoryStateTime::IDLE  10986025000                       # Time in different power states
system.mem_ctrls_1.memoryStateTime::REF             0                       # Time in different power states
system.mem_ctrls_1.memoryStateTime::SREF            0                       # Time in different power states
system.mem_ctrls_1.memoryStateTime::PRE_PDN            0                       # Time in different power states
system.mem_ctrls_1.memoryStateTime::ACT             0                       # Time in different power states
system.mem_ctrls_1.memoryStateTime::ACT_PDN            0                       # Time in different power states
system.mem_ctrls_1.preBackEnergy           4218633600                       # Energy for precharge background per rank (pJ)
system.mem_ctrls_1.preEnergy                        0                       # Energy for precharge commands per rank (pJ)
system.mem_ctrls_1.prePowerDownEnergy               0                       # Energy for precharge power-down per rank (pJ)
system.mem_ctrls_1.readEnergy                       0                       # Energy for read commands per rank (pJ)
system.mem_ctrls_1.refreshEnergy                    0                       # Energy for refresh commands per rank (pJ)
system.mem_ctrls_1.selfRefreshEnergy                0                       # Energy for self refresh per rank (pJ)
system.mem_ctrls_1.totalEnergy             4218633600                       # Total energy per rank (pJ)
system.mem_ctrls_1.totalIdleTime                    0                       # Total Idle time Per DRAM Rank
system.mem_ctrls_1.writeEnergy                      0                       # Energy for write commands per rank (pJ)
system.membus.pkt_count_system.l2.mem_side::system.mem_ctrls.port      4153940                       # Packet count per connected master and slave (bytes)
system.membus.pkt_count_system.l2.mem_side::total      4153940                       # Packet count per connected master and slave (bytes)
system.membus.pkt_count::total                4153940                       # Packet count per connected master and slave (bytes)
system.membus.pkt_size_system.l2.mem_side::system.mem_ctrls.port    909671936                       # Cumulative packet size per connected master and slave (bytes)
system.membus.pkt_size_system.l2.mem_side::total    909671936                       # Cumulative packet size per connected master and slave (bytes)
system.membus.pkt_size::total               909671936                       # Cumulative packet size per connected master and slave (bytes)
system.membus.pwrStateResidencyTicks::UNDEFINED  10986025000                       # Cumulative time (in ticks) in various power states
system.membus.snoopTraffic                          0                       # Total snoop traffic (bytes)
system.membus.snoop_fanout::samples           1384648                       # Request fanout histogram
system.membus.snoop_fanout::mean                    0                       # Request fanout histogram
system.membus.snoop_fanout::stdev                   0                       # Request fanout histogram
system.membus.snoop_fanout::underflows              0      0.00%      0.00% # Request fanout histogram
system.membus.snoop_fanout::0                 1384648    100.00%    100.00% # Request fanout histogram
system.membus.snoop_fanout::1                       0      0.00%    100.00% # Request fanout histogram
system.membus.snoop_fanout::overflows               0      0.00%    100.00% # Request fanout histogram
system.membus.snoop_fanout::min_value               0                       # Request fanout histogram
system.membus.snoop_fanout::max_value               0                       # Request fanout histogram
system.membus.snoop_fanout::total             1384648                       # Request fanout histogram
system.membus.snoop_filter.hit_multi_requests            0                       # Number of requests hitting in the snoop filter with multiple (>1) holders of the requested data.
system.membus.snoop_filter.hit_multi_snoops            0                       # Number of snoops hitting in the snoop filter with multiple (>1) holders of the requested data.
system.membus.snoop_filter.hit_single_requests      1384644                       # Number of requests hitting in the snoop filter with a single holder of the requested data.
system.membus.snoop_filter.hit_single_snoops            0                       # Number of snoops hitting in the snoop filter with a single holder of the requested data.
system.membus.snoop_filter.tot_requests       2769292                       # Total number of requests made to the snoop filter.
system.membus.snoop_filter.tot_snoops               0                       # Total number of snoops made to the snoop filter.
system.membus.snoops                                0                       # Total snoops (count)
system.membus.trans_dist::ReadResp            1165484                       # Transaction distribution
system.membus.trans_dist::WritebackDirty       392055                       # Transaction distribution
system.membus.trans_dist::CleanEvict           992589                       # Transaction distribution
system.membus.trans_dist::ReadExReq            219164                       # Transaction distribution
system.membus.trans_dist::ReadExResp           219164                       # Transaction distribution
system.membus.trans_dist::ReadSharedReq       1165484                       # Transaction distribution
system.pwrStateResidencyTicks::UNDEFINED  10986025000                       # Cumulative time (in ticks) in various power states
system.tol2bus.pkt_count_system.cpu.icache.mem_side::system.l2.cpu_side      1428511                       # Packet count per connected master and slave (bytes)
system.tol2bus.pkt_count_system.cpu.dcache.mem_side::system.l2.cpu_side      3895429                       # Packet count per connected master and slave (bytes)
system.tol2bus.pkt_count::total               5323940                       # Packet count per connected master and slave (bytes)
system.tol2bus.pkt_size_system.cpu.icache.mem_side::system.l2.cpu_side    487598080                       # Cumulative packet size per connected master and slave (bytes)
system.tol2bus.pkt_size_system.cpu.dcache.mem_side::system.l2.cpu_side   1015889920                       # Cumulative packet size per connected master and slave (bytes)
system.tol2bus.pkt_size::total             1503488000                       # Cumulative packet size per connected master and slave (bytes)
system.tol2bus.pwrStateResidencyTicks::UNDEFINED  10986025000                       # Cumulative time (in ticks) in various power states
system.tol2bus.snoopTraffic                 200732160                       # Total snoop traffic (bytes)
system.tol2bus.snoop_fanout::samples          4321146                       # Request fanout histogram
system.tol2bus.snoop_fanout::mean            0.410689                       # Request fanout histogram
system.tol2bus.snoop_fanout::stdev           0.491959                       # Request fanout histogram
system.tol2bus.snoop_fanout::underflows             0      0.00%      0.00% # Request fanout histogram
system.tol2bus.snoop_fanout::0                2546500     58.93%     58.93% # Request fanout histogram
system.tol2bus.snoop_fanout::1                1774646     41.07%    100.00% # Request fanout histogram
system.tol2bus.snoop_fanout::2                      0      0.00%    100.00% # Request fanout histogram
system.tol2bus.snoop_fanout::3                      0      0.00%    100.00% # Request fanout histogram
system.tol2bus.snoop_fanout::4                      0      0.00%    100.00% # Request fanout histogram
system.tol2bus.snoop_fanout::overflows              0      0.00%    100.00% # Request fanout histogram
system.tol2bus.snoop_fanout::min_value              0                       # Request fanout histogram
system.tol2bus.snoop_fanout::max_value              1                       # Request fanout histogram
system.tol2bus.snoop_fanout::total            4321146                       # Request fanout histogram
system.tol2bus.snoop_filter.hit_multi_requests            0                       # Number of requests hitting in the snoop filter with multiple (>1) holders of the requested data.
system.tol2bus.snoop_filter.hit_multi_snoops            0                       # Number of snoops hitting in the snoop filter with multiple (>1) holders of the requested data.
system.tol2bus.snoop_filter.hit_single_requests      1774644                       # Number of requests hitting in the snoop filter with a single holder of the requested data.
system.tol2bus.snoop_filter.hit_single_snoops      1774646                       # Number of snoops hitting in the snoop filter with a single holder of the requested data.
system.tol2bus.snoop_filter.tot_requests      3549292                       # Total number of requests made to the snoop filter.
system.tol2bus.snoop_filter.tot_snoops        1774646                       # Total number of snoops made to the snoop filter.
system.tol2bus.snoops                         2546498                       # Total snoops (count)
system.tol2bus.trans_dist::ReadResp           1415929                       # Transaction distribution
system.tol2bus.trans_dist::WritebackDirty       685683                       # Transaction distribution
system.tol2bus.trans_dist::WritebackClean       476169                       # Transaction distribution
system.tol2bus.trans_dist::CleanEvict          612792                       # Transaction distribution
system.tol2bus.trans_dist::ReadExReq           358719                       # Transaction distribution
system.tol2bus.trans_dist::ReadExResp          358719                       # Transaction distribution
system.tol2bus.trans_dist::ReadCleanReq        476171                       # Transaction distribution
system.tol2bus.trans_dist::ReadSharedReq       939758                       # Transaction distribution
system.voltage_domain.voltage                       1                       # Voltage in Volts

---------- End Simulation Statistics   ----------
